Version 4
SHEET 1 1116 1088
WIRE -160 -32 -160 -80
WIRE -64 -32 -160 -32
WIRE 16 -32 -64 -32
WIRE 112 -32 16 -32
WIRE 272 -32 192 -32
WIRE -320 16 -320 -16
WIRE 16 16 16 -32
WIRE -64 64 -64 -32
WIRE -32 64 -64 64
WIRE -576 112 -576 64
WIRE -320 128 -320 96
WIRE 16 160 16 112
WIRE -576 224 -576 192
WIRE -576 224 -752 224
WIRE -576 256 -576 224
WIRE -160 320 -192 320
WIRE -48 320 -80 320
WIRE 64 320 32 320
WIRE -576 384 -576 336
WIRE -320 400 -384 400
WIRE -192 400 -192 320
WIRE -192 400 -240 400
WIRE -384 416 -384 400
WIRE -192 448 -192 400
WIRE -144 448 -192 448
WIRE 64 464 64 320
WIRE 64 464 -80 464
WIRE 128 464 64 464
WIRE -144 480 -576 480
WIRE -112 512 -112 496
WIRE -752 528 -752 224
WIRE -576 544 -576 480
WIRE -752 672 -752 608
WIRE -576 672 -576 624
WIRE -576 672 -752 672
WIRE -752 720 -752 672
WIRE -752 848 -752 800
FLAG -112 512 0
FLAG -112 432 Vcc
FLAG -320 -16 Vcc
FLAG -320 128 0
FLAG -752 848 0
FLAG -576 64 Vref
FLAG -576 384 0
FLAG -384 416 0
FLAG 128 464 Vadc
FLAG 16 160 0
FLAG -160 -80 Vref
FLAG 272 -32 Vcc
SYMBOL res -336 416 R270
WINDOW 0 32 56 VTop 2
WINDOW 3 0 56 VBottom 2
SYMATTR InstName R5
SYMATTR Value 4k7
SYMBOL res -176 336 R270
WINDOW 0 32 56 VTop 2
WINDOW 3 0 56 VBottom 2
SYMATTR InstName R6
SYMATTR Value 680k
SYMBOL voltage -320 0 R0
SYMATTR InstName V2
SYMATTR Value 5
SYMBOL voltage -576 528 R0
SYMATTR InstName Termopar
SYMATTR Value {Vtp}
SYMBOL res -768 704 R0
SYMATTR InstName R4
SYMATTR Value 150
SYMBOL res -768 512 R0
SYMATTR InstName R3
SYMATTR Value 100k
SYMBOL res -592 240 R0
SYMATTR InstName R1
SYMATTR Value 5k6
SYMBOL res -592 96 R0
SYMATTR InstName Termistor
SYMATTR Value {Rt}
SYMBOL Opamps\\OP191 -112 400 R0
SYMATTR InstName U4
SYMBOL res 48 304 R90
WINDOW 0 0 56 VBottom 2
WINDOW 3 32 56 VTop 2
SYMATTR InstName R2
SYMATTR Value 390k
SYMBOL res 208 -48 R90
WINDOW 0 0 56 VBottom 2
WINDOW 3 32 56 VTop 2
SYMATTR InstName R7
SYMATTR Value 82
SYMBOL TL431 16 64 R0
SYMATTR InstName U2
TEXT -432 632 Left 2 !.tran 1
TEXT -432 728 Left 2 !.param Vtp=38.75u*(Tproc-Tamb)
TEXT -432 664 Left 2 !.param Tproc=0
TEXT -432 696 Left 2 !.param Tamb=25
TEXT -432 760 Left 2 !.param Rt=10k*exp(3540*((1/(Tamb+273))-(1/298)))
